LTspice 24.0.9 for Windows
Circuit: * C:\Users\DanielKopiecki\Desktop\personal\sk\spice\psu_230.asc
Start Time: Fri Mar 15 12:29:56 2024
d2: both pins shorted together -- ignoring.
solver = Normal
Maximum thread count: 12
tnom = 27
temp = 27
method = modified trap
.OP point found by inspection.
Total elapsed time: 0.482 seconds.

